LTspice 26.0.2 for Windows
Circuit: C:\Users\leone\OneDrive\Desktop\Personal_Projects\FarnsworthFusor\PowerSupply\LTSpice\LLC.net
Start Time: Sun Jul 19 17:55:18 2026
solver = Normal
Maximum thread count: 12
tnom = 27
temp = 27
method = modified trap
.OP point found by inspection.
.OP point found by inspection.
Total elapsed time: 0.072 seconds.

Files loaded:
C:\Users\leone\OneDrive\Desktop\Personal_Projects\FarnsworthFusor\PowerSupply\LTSpice\LLC.net

